* NGSPICE file created from MULTI_32bit.ext - technology: sky130A

* Black-box entry subcircuit for sky130_fd_sc_hd__decap_4 abstract view
.subckt sky130_fd_sc_hd__decap_4 VGND VNB VPB VPWR
.ends

* Black-box entry subcircuit for sky130_fd_sc_hd__decap_6 abstract view
.subckt sky130_fd_sc_hd__decap_6 VGND VNB VPB VPWR
.ends

* Black-box entry subcircuit for sky130_fd_sc_hd__xnor2_1 abstract view
.subckt sky130_fd_sc_hd__xnor2_1 A B VGND VNB VPB VPWR Y
.ends

* Black-box entry subcircuit for sky130_fd_sc_hd__inv_2 abstract view
.subckt sky130_fd_sc_hd__inv_2 A VGND VNB VPB VPWR Y
.ends

* Black-box entry subcircuit for sky130_fd_sc_hd__xnor2_2 abstract view
.subckt sky130_fd_sc_hd__xnor2_2 A B VGND VNB VPB VPWR Y
.ends

* Black-box entry subcircuit for sky130_fd_sc_hd__fill_1 abstract view
.subckt sky130_fd_sc_hd__fill_1 VGND VNB VPB VPWR
.ends

* Black-box entry subcircuit for sky130_fd_sc_hd__decap_12 abstract view
.subckt sky130_fd_sc_hd__decap_12 VGND VNB VPB VPWR
.ends

* Black-box entry subcircuit for sky130_fd_sc_hd__decap_8 abstract view
.subckt sky130_fd_sc_hd__decap_8 VGND VNB VPB VPWR
.ends

* Black-box entry subcircuit for sky130_fd_sc_hd__and3_1 abstract view
.subckt sky130_fd_sc_hd__and3_1 A B C VGND VNB VPB VPWR X
.ends

* Black-box entry subcircuit for sky130_fd_sc_hd__dlymetal6s2s_1 abstract view
.subckt sky130_fd_sc_hd__dlymetal6s2s_1 A VGND VNB VPB VPWR X
.ends

* Black-box entry subcircuit for sky130_fd_sc_hd__a22oi_1 abstract view
.subckt sky130_fd_sc_hd__a22oi_1 A1 A2 B1 B2 VGND VNB VPB VPWR Y
.ends

* Black-box entry subcircuit for sky130_fd_sc_hd__mux2_1 abstract view
.subckt sky130_fd_sc_hd__mux2_1 A0 A1 S VGND VNB VPB VPWR X
.ends

* Black-box entry subcircuit for sky130_fd_sc_hd__o21a_1 abstract view
.subckt sky130_fd_sc_hd__o21a_1 A1 A2 B1 VGND VNB VPB VPWR X
.ends

* Black-box entry subcircuit for sky130_fd_sc_hd__a221o_1 abstract view
.subckt sky130_fd_sc_hd__a221o_1 A1 A2 B1 B2 C1 VGND VNB VPB VPWR X
.ends

* Black-box entry subcircuit for sky130_fd_sc_hd__xor2_1 abstract view
.subckt sky130_fd_sc_hd__xor2_1 A B VGND VNB VPB VPWR X
.ends

* Black-box entry subcircuit for sky130_fd_sc_hd__a21oi_1 abstract view
.subckt sky130_fd_sc_hd__a21oi_1 A1 A2 B1 VGND VNB VPB VPWR Y
.ends

* Black-box entry subcircuit for sky130_fd_sc_hd__nor2_1 abstract view
.subckt sky130_fd_sc_hd__nor2_1 A B VGND VNB VPB VPWR Y
.ends

* Black-box entry subcircuit for sky130_fd_sc_hd__and4_1 abstract view
.subckt sky130_fd_sc_hd__and4_1 A B C D VGND VNB VPB VPWR X
.ends

* Black-box entry subcircuit for sky130_fd_sc_hd__decap_3 abstract view
.subckt sky130_fd_sc_hd__decap_3 VGND VNB VPB VPWR
.ends

* Black-box entry subcircuit for sky130_fd_sc_hd__fill_2 abstract view
.subckt sky130_fd_sc_hd__fill_2 VGND VNB VPB VPWR
.ends

* Black-box entry subcircuit for sky130_fd_sc_hd__clkbuf_2 abstract view
.subckt sky130_fd_sc_hd__clkbuf_2 A VGND VNB VPB VPWR X
.ends

* Black-box entry subcircuit for sky130_fd_sc_hd__buf_4 abstract view
.subckt sky130_fd_sc_hd__buf_4 A VGND VNB VPB VPWR X
.ends

* Black-box entry subcircuit for sky130_fd_sc_hd__o211a_1 abstract view
.subckt sky130_fd_sc_hd__o211a_1 A1 A2 B1 C1 VGND VNB VPB VPWR X
.ends

* Black-box entry subcircuit for sky130_fd_sc_hd__or2_1 abstract view
.subckt sky130_fd_sc_hd__or2_1 A B VGND VNB VPB VPWR X
.ends

* Black-box entry subcircuit for sky130_fd_sc_hd__nand2_1 abstract view
.subckt sky130_fd_sc_hd__nand2_1 A B VGND VNB VPB VPWR Y
.ends

* Black-box entry subcircuit for sky130_fd_sc_hd__o211ai_2 abstract view
.subckt sky130_fd_sc_hd__o211ai_2 A1 A2 B1 C1 VGND VNB VPB VPWR Y
.ends

* Black-box entry subcircuit for sky130_fd_sc_hd__tapvpwrvgnd_1 abstract view
.subckt sky130_fd_sc_hd__tapvpwrvgnd_1 VGND VPWR
.ends

* Black-box entry subcircuit for sky130_fd_sc_hd__or3b_1 abstract view
.subckt sky130_fd_sc_hd__or3b_1 A B C_N VGND VNB VPB VPWR X
.ends

* Black-box entry subcircuit for sky130_fd_sc_hd__nand2_2 abstract view
.subckt sky130_fd_sc_hd__nand2_2 A B VGND VNB VPB VPWR Y
.ends

* Black-box entry subcircuit for sky130_fd_sc_hd__and2b_1 abstract view
.subckt sky130_fd_sc_hd__and2b_1 A_N B VGND VNB VPB VPWR X
.ends

* Black-box entry subcircuit for sky130_fd_sc_hd__a31o_1 abstract view
.subckt sky130_fd_sc_hd__a31o_1 A1 A2 A3 B1 VGND VNB VPB VPWR X
.ends

* Black-box entry subcircuit for sky130_fd_sc_hd__a21o_1 abstract view
.subckt sky130_fd_sc_hd__a21o_1 A1 A2 B1 VGND VNB VPB VPWR X
.ends

* Black-box entry subcircuit for sky130_fd_sc_hd__and2_2 abstract view
.subckt sky130_fd_sc_hd__and2_2 A B VGND VNB VPB VPWR X
.ends

* Black-box entry subcircuit for sky130_fd_sc_hd__o21ba_2 abstract view
.subckt sky130_fd_sc_hd__o21ba_2 A1 A2 B1_N VGND VNB VPB VPWR X
.ends

* Black-box entry subcircuit for sky130_fd_sc_hd__and2_1 abstract view
.subckt sky130_fd_sc_hd__and2_1 A B VGND VNB VPB VPWR X
.ends

* Black-box entry subcircuit for sky130_fd_sc_hd__buf_2 abstract view
.subckt sky130_fd_sc_hd__buf_2 A VGND VNB VPB VPWR X
.ends

* Black-box entry subcircuit for sky130_fd_sc_hd__a22o_1 abstract view
.subckt sky130_fd_sc_hd__a22o_1 A1 A2 B1 B2 VGND VNB VPB VPWR X
.ends

* Black-box entry subcircuit for sky130_fd_sc_hd__dfxtp_4 abstract view
.subckt sky130_fd_sc_hd__dfxtp_4 CLK D VGND VNB VPB VPWR Q
.ends

* Black-box entry subcircuit for sky130_fd_sc_hd__nand3_2 abstract view
.subckt sky130_fd_sc_hd__nand3_2 A B C VGND VNB VPB VPWR Y
.ends

* Black-box entry subcircuit for sky130_fd_sc_hd__o21ai_1 abstract view
.subckt sky130_fd_sc_hd__o21ai_1 A1 A2 B1 VGND VNB VPB VPWR Y
.ends

* Black-box entry subcircuit for sky130_fd_sc_hd__a211o_1 abstract view
.subckt sky130_fd_sc_hd__a211o_1 A1 A2 B1 C1 VGND VNB VPB VPWR X
.ends

* Black-box entry subcircuit for sky130_fd_sc_hd__nand3_1 abstract view
.subckt sky130_fd_sc_hd__nand3_1 A B C VGND VNB VPB VPWR Y
.ends

* Black-box entry subcircuit for sky130_fd_sc_hd__o21bai_2 abstract view
.subckt sky130_fd_sc_hd__o21bai_2 A1 A2 B1_N VGND VNB VPB VPWR Y
.ends

* Black-box entry subcircuit for sky130_fd_sc_hd__o31a_1 abstract view
.subckt sky130_fd_sc_hd__o31a_1 A1 A2 A3 B1 VGND VNB VPB VPWR X
.ends

* Black-box entry subcircuit for sky130_fd_sc_hd__and4bb_1 abstract view
.subckt sky130_fd_sc_hd__and4bb_1 A_N B_N C D VGND VNB VPB VPWR X
.ends

* Black-box entry subcircuit for sky130_fd_sc_hd__dfxtp_1 abstract view
.subckt sky130_fd_sc_hd__dfxtp_1 CLK D VGND VNB VPB VPWR Q
.ends

* Black-box entry subcircuit for sky130_fd_sc_hd__clkinv_2 abstract view
.subckt sky130_fd_sc_hd__clkinv_2 A VGND VNB VPB VPWR Y
.ends

* Black-box entry subcircuit for sky130_fd_sc_hd__a22oi_2 abstract view
.subckt sky130_fd_sc_hd__a22oi_2 A1 A2 B1 B2 VGND VNB VPB VPWR Y
.ends

* Black-box entry subcircuit for sky130_fd_sc_hd__clkbuf_1 abstract view
.subckt sky130_fd_sc_hd__clkbuf_1 A VGND VNB VPB VPWR X
.ends

* Black-box entry subcircuit for sky130_fd_sc_hd__nor3b_1 abstract view
.subckt sky130_fd_sc_hd__nor3b_1 A B C_N VGND VNB VPB VPWR Y
.ends

* Black-box entry subcircuit for sky130_fd_sc_hd__diode_2 abstract view
.subckt sky130_fd_sc_hd__diode_2 DIODE VGND VNB VPB VPWR
.ends

* Black-box entry subcircuit for sky130_fd_sc_hd__o21ba_1 abstract view
.subckt sky130_fd_sc_hd__o21ba_1 A1 A2 B1_N VGND VNB VPB VPWR X
.ends

* Black-box entry subcircuit for sky130_fd_sc_hd__xor2_4 abstract view
.subckt sky130_fd_sc_hd__xor2_4 A B VGND VNB VPB VPWR X
.ends

* Black-box entry subcircuit for sky130_fd_sc_hd__o2bb2a_1 abstract view
.subckt sky130_fd_sc_hd__o2bb2a_1 A1_N A2_N B1 B2 VGND VNB VPB VPWR X
.ends

* Black-box entry subcircuit for sky130_fd_sc_hd__clkbuf_4 abstract view
.subckt sky130_fd_sc_hd__clkbuf_4 A VGND VNB VPB VPWR X
.ends

* Black-box entry subcircuit for sky130_fd_sc_hd__a211oi_2 abstract view
.subckt sky130_fd_sc_hd__a211oi_2 A1 A2 B1 C1 VGND VNB VPB VPWR Y
.ends

* Black-box entry subcircuit for sky130_fd_sc_hd__a21oi_4 abstract view
.subckt sky130_fd_sc_hd__a21oi_4 A1 A2 B1 VGND VNB VPB VPWR Y
.ends

* Black-box entry subcircuit for sky130_fd_sc_hd__nor2_2 abstract view
.subckt sky130_fd_sc_hd__nor2_2 A B VGND VNB VPB VPWR Y
.ends

* Black-box entry subcircuit for sky130_fd_sc_hd__a21bo_1 abstract view
.subckt sky130_fd_sc_hd__a21bo_1 A1 A2 B1_N VGND VNB VPB VPWR X
.ends

* Black-box entry subcircuit for sky130_fd_sc_hd__or2b_1 abstract view
.subckt sky130_fd_sc_hd__or2b_1 A B_N VGND VNB VPB VPWR X
.ends

* Black-box entry subcircuit for sky130_fd_sc_hd__o221a_1 abstract view
.subckt sky130_fd_sc_hd__o221a_1 A1 A2 B1 B2 C1 VGND VNB VPB VPWR X
.ends

* Black-box entry subcircuit for sky130_fd_sc_hd__and4b_1 abstract view
.subckt sky130_fd_sc_hd__and4b_1 A_N B C D VGND VNB VPB VPWR X
.ends

* Black-box entry subcircuit for sky130_fd_sc_hd__nor3_1 abstract view
.subckt sky130_fd_sc_hd__nor3_1 A B C VGND VNB VPB VPWR Y
.ends

* Black-box entry subcircuit for sky130_fd_sc_hd__and3b_1 abstract view
.subckt sky130_fd_sc_hd__and3b_1 A_N B C VGND VNB VPB VPWR X
.ends

* Black-box entry subcircuit for sky130_fd_sc_hd__o311ai_4 abstract view
.subckt sky130_fd_sc_hd__o311ai_4 A1 A2 A3 B1 C1 VGND VNB VPB VPWR Y
.ends

* Black-box entry subcircuit for sky130_fd_sc_hd__nor3b_2 abstract view
.subckt sky130_fd_sc_hd__nor3b_2 A B C_N VGND VNB VPB VPWR Y
.ends

* Black-box entry subcircuit for sky130_fd_sc_hd__o21bai_1 abstract view
.subckt sky130_fd_sc_hd__o21bai_1 A1 A2 B1_N VGND VNB VPB VPWR Y
.ends

* Black-box entry subcircuit for sky130_fd_sc_hd__a311oi_4 abstract view
.subckt sky130_fd_sc_hd__a311oi_4 A1 A2 A3 B1 C1 VGND VNB VPB VPWR Y
.ends

* Black-box entry subcircuit for sky130_fd_sc_hd__a21oi_2 abstract view
.subckt sky130_fd_sc_hd__a21oi_2 A1 A2 B1 VGND VNB VPB VPWR Y
.ends

* Black-box entry subcircuit for sky130_fd_sc_hd__or3_1 abstract view
.subckt sky130_fd_sc_hd__or3_1 A B C VGND VNB VPB VPWR X
.ends

* Black-box entry subcircuit for sky130_fd_sc_hd__o22ai_1 abstract view
.subckt sky130_fd_sc_hd__o22ai_1 A1 A2 B1 B2 VGND VNB VPB VPWR Y
.ends

* Black-box entry subcircuit for sky130_fd_sc_hd__dfxtp_2 abstract view
.subckt sky130_fd_sc_hd__dfxtp_2 CLK D VGND VNB VPB VPWR Q
.ends

* Black-box entry subcircuit for sky130_fd_sc_hd__o221a_4 abstract view
.subckt sky130_fd_sc_hd__o221a_4 A1 A2 B1 B2 C1 VGND VNB VPB VPWR X
.ends

* Black-box entry subcircuit for sky130_fd_sc_hd__a22oi_4 abstract view
.subckt sky130_fd_sc_hd__a22oi_4 A1 A2 B1 B2 VGND VNB VPB VPWR Y
.ends

* Black-box entry subcircuit for sky130_fd_sc_hd__xor2_2 abstract view
.subckt sky130_fd_sc_hd__xor2_2 A B VGND VNB VPB VPWR X
.ends

* Black-box entry subcircuit for sky130_fd_sc_hd__nor2_4 abstract view
.subckt sky130_fd_sc_hd__nor2_4 A B VGND VNB VPB VPWR Y
.ends

* Black-box entry subcircuit for sky130_fd_sc_hd__clkdlybuf4s25_1 abstract view
.subckt sky130_fd_sc_hd__clkdlybuf4s25_1 A VGND VNB VPB VPWR X
.ends

* Black-box entry subcircuit for sky130_fd_sc_hd__nand4_4 abstract view
.subckt sky130_fd_sc_hd__nand4_4 A B C D VGND VNB VPB VPWR Y
.ends

* Black-box entry subcircuit for sky130_fd_sc_hd__o211ai_4 abstract view
.subckt sky130_fd_sc_hd__o211ai_4 A1 A2 B1 C1 VGND VNB VPB VPWR Y
.ends

* Black-box entry subcircuit for sky130_fd_sc_hd__or4_4 abstract view
.subckt sky130_fd_sc_hd__or4_4 A B C D VGND VNB VPB VPWR X
.ends

* Black-box entry subcircuit for sky130_fd_sc_hd__nor3_4 abstract view
.subckt sky130_fd_sc_hd__nor3_4 A B C VGND VNB VPB VPWR Y
.ends

* Black-box entry subcircuit for sky130_fd_sc_hd__a2bb2o_1 abstract view
.subckt sky130_fd_sc_hd__a2bb2o_1 A1_N A2_N B1 B2 VGND VNB VPB VPWR X
.ends

* Black-box entry subcircuit for sky130_fd_sc_hd__o21ai_2 abstract view
.subckt sky130_fd_sc_hd__o21ai_2 A1 A2 B1 VGND VNB VPB VPWR Y
.ends

* Black-box entry subcircuit for sky130_fd_sc_hd__xnor2_4 abstract view
.subckt sky130_fd_sc_hd__xnor2_4 A B VGND VNB VPB VPWR Y
.ends

* Black-box entry subcircuit for sky130_fd_sc_hd__nand4_1 abstract view
.subckt sky130_fd_sc_hd__nand4_1 A B C D VGND VNB VPB VPWR Y
.ends

* Black-box entry subcircuit for sky130_fd_sc_hd__nand2b_1 abstract view
.subckt sky130_fd_sc_hd__nand2b_1 A_N B VGND VNB VPB VPWR Y
.ends

* Black-box entry subcircuit for sky130_fd_sc_hd__o221ai_1 abstract view
.subckt sky130_fd_sc_hd__o221ai_1 A1 A2 B1 B2 C1 VGND VNB VPB VPWR Y
.ends

* Black-box entry subcircuit for sky130_fd_sc_hd__o31ai_1 abstract view
.subckt sky130_fd_sc_hd__o31ai_1 A1 A2 A3 B1 VGND VNB VPB VPWR Y
.ends

* Black-box entry subcircuit for sky130_fd_sc_hd__a211oi_4 abstract view
.subckt sky130_fd_sc_hd__a211oi_4 A1 A2 B1 C1 VGND VNB VPB VPWR Y
.ends

* Black-box entry subcircuit for sky130_fd_sc_hd__a21boi_1 abstract view
.subckt sky130_fd_sc_hd__a21boi_1 A1 A2 B1_N VGND VNB VPB VPWR Y
.ends

* Black-box entry subcircuit for sky130_fd_sc_hd__a311oi_2 abstract view
.subckt sky130_fd_sc_hd__a311oi_2 A1 A2 A3 B1 C1 VGND VNB VPB VPWR Y
.ends

* Black-box entry subcircuit for sky130_fd_sc_hd__a311o_2 abstract view
.subckt sky130_fd_sc_hd__a311o_2 A1 A2 A3 B1 C1 VGND VNB VPB VPWR X
.ends

* Black-box entry subcircuit for sky130_fd_sc_hd__a211o_2 abstract view
.subckt sky130_fd_sc_hd__a211o_2 A1 A2 B1 C1 VGND VNB VPB VPWR X
.ends

* Black-box entry subcircuit for sky130_fd_sc_hd__and4_2 abstract view
.subckt sky130_fd_sc_hd__and4_2 A B C D VGND VNB VPB VPWR X
.ends

* Black-box entry subcircuit for sky130_fd_sc_hd__a21o_2 abstract view
.subckt sky130_fd_sc_hd__a21o_2 A1 A2 B1 VGND VNB VPB VPWR X
.ends

* Black-box entry subcircuit for sky130_fd_sc_hd__or4bb_1 abstract view
.subckt sky130_fd_sc_hd__or4bb_1 A B C_N D_N VGND VNB VPB VPWR X
.ends

* Black-box entry subcircuit for sky130_fd_sc_hd__a211oi_1 abstract view
.subckt sky130_fd_sc_hd__a211oi_1 A1 A2 B1 C1 VGND VNB VPB VPWR Y
.ends

* Black-box entry subcircuit for sky130_fd_sc_hd__o221a_2 abstract view
.subckt sky130_fd_sc_hd__o221a_2 A1 A2 B1 B2 C1 VGND VNB VPB VPWR X
.ends

* Black-box entry subcircuit for sky130_fd_sc_hd__or3_2 abstract view
.subckt sky130_fd_sc_hd__or3_2 A B C VGND VNB VPB VPWR X
.ends

* Black-box entry subcircuit for sky130_fd_sc_hd__a31oi_4 abstract view
.subckt sky130_fd_sc_hd__a31oi_4 A1 A2 A3 B1 VGND VNB VPB VPWR Y
.ends

* Black-box entry subcircuit for sky130_fd_sc_hd__nand3_4 abstract view
.subckt sky130_fd_sc_hd__nand3_4 A B C VGND VNB VPB VPWR Y
.ends

* Black-box entry subcircuit for sky130_fd_sc_hd__or2_2 abstract view
.subckt sky130_fd_sc_hd__or2_2 A B VGND VNB VPB VPWR X
.ends

* Black-box entry subcircuit for sky130_fd_sc_hd__mux2_2 abstract view
.subckt sky130_fd_sc_hd__mux2_2 A0 A1 S VGND VNB VPB VPWR X
.ends

* Black-box entry subcircuit for sky130_fd_sc_hd__or4bb_2 abstract view
.subckt sky130_fd_sc_hd__or4bb_2 A B C_N D_N VGND VNB VPB VPWR X
.ends

* Black-box entry subcircuit for sky130_fd_sc_hd__clkbuf_16 abstract view
.subckt sky130_fd_sc_hd__clkbuf_16 A VGND VNB VPB VPWR X
.ends

* Black-box entry subcircuit for sky130_fd_sc_hd__or4_1 abstract view
.subckt sky130_fd_sc_hd__or4_1 A B C D VGND VNB VPB VPWR X
.ends

* Black-box entry subcircuit for sky130_fd_sc_hd__a31oi_1 abstract view
.subckt sky130_fd_sc_hd__a31oi_1 A1 A2 A3 B1 VGND VNB VPB VPWR Y
.ends

* Black-box entry subcircuit for sky130_fd_sc_hd__mux2_4 abstract view
.subckt sky130_fd_sc_hd__mux2_4 A0 A1 S VGND VNB VPB VPWR X
.ends

* Black-box entry subcircuit for sky130_fd_sc_hd__and3_2 abstract view
.subckt sky130_fd_sc_hd__and3_2 A B C VGND VNB VPB VPWR X
.ends

* Black-box entry subcircuit for sky130_fd_sc_hd__nor3_2 abstract view
.subckt sky130_fd_sc_hd__nor3_2 A B C VGND VNB VPB VPWR Y
.ends

* Black-box entry subcircuit for sky130_fd_sc_hd__a2bb2o_4 abstract view
.subckt sky130_fd_sc_hd__a2bb2o_4 A1_N A2_N B1 B2 VGND VNB VPB VPWR X
.ends

* Black-box entry subcircuit for sky130_fd_sc_hd__nand2_4 abstract view
.subckt sky130_fd_sc_hd__nand2_4 A B VGND VNB VPB VPWR Y
.ends

* Black-box entry subcircuit for sky130_fd_sc_hd__o31ai_2 abstract view
.subckt sky130_fd_sc_hd__o31ai_2 A1 A2 A3 B1 VGND VNB VPB VPWR Y
.ends

* Black-box entry subcircuit for sky130_fd_sc_hd__o21ai_4 abstract view
.subckt sky130_fd_sc_hd__o21ai_4 A1 A2 B1 VGND VNB VPB VPWR Y
.ends

* Black-box entry subcircuit for sky130_fd_sc_hd__o211a_2 abstract view
.subckt sky130_fd_sc_hd__o211a_2 A1 A2 B1 C1 VGND VNB VPB VPWR X
.ends

* Black-box entry subcircuit for sky130_fd_sc_hd__or2b_4 abstract view
.subckt sky130_fd_sc_hd__or2b_4 A B_N VGND VNB VPB VPWR X
.ends

* Black-box entry subcircuit for sky130_fd_sc_hd__o22a_1 abstract view
.subckt sky130_fd_sc_hd__o22a_1 A1 A2 B1 B2 VGND VNB VPB VPWR X
.ends

* Black-box entry subcircuit for sky130_fd_sc_hd__a2111o_1 abstract view
.subckt sky130_fd_sc_hd__a2111o_1 A1 A2 B1 C1 D1 VGND VNB VPB VPWR X
.ends

* Black-box entry subcircuit for sky130_fd_sc_hd__nand4_2 abstract view
.subckt sky130_fd_sc_hd__nand4_2 A B C D VGND VNB VPB VPWR Y
.ends

* Black-box entry subcircuit for sky130_fd_sc_hd__nor4_2 abstract view
.subckt sky130_fd_sc_hd__nor4_2 A B C D VGND VNB VPB VPWR Y
.ends

* Black-box entry subcircuit for sky130_fd_sc_hd__nand3b_2 abstract view
.subckt sky130_fd_sc_hd__nand3b_2 A_N B C VGND VNB VPB VPWR Y
.ends

* Black-box entry subcircuit for sky130_fd_sc_hd__a221oi_1 abstract view
.subckt sky130_fd_sc_hd__a221oi_1 A1 A2 B1 B2 C1 VGND VNB VPB VPWR Y
.ends

* Black-box entry subcircuit for sky130_fd_sc_hd__a31oi_2 abstract view
.subckt sky130_fd_sc_hd__a31oi_2 A1 A2 A3 B1 VGND VNB VPB VPWR Y
.ends

* Black-box entry subcircuit for sky130_fd_sc_hd__a32o_1 abstract view
.subckt sky130_fd_sc_hd__a32o_1 A1 A2 A3 B1 B2 VGND VNB VPB VPWR X
.ends

* Black-box entry subcircuit for sky130_fd_sc_hd__o21a_2 abstract view
.subckt sky130_fd_sc_hd__o21a_2 A1 A2 B1 VGND VNB VPB VPWR X
.ends

* Black-box entry subcircuit for sky130_fd_sc_hd__o311a_1 abstract view
.subckt sky130_fd_sc_hd__o311a_1 A1 A2 A3 B1 C1 VGND VNB VPB VPWR X
.ends

* Black-box entry subcircuit for sky130_fd_sc_hd__o211ai_1 abstract view
.subckt sky130_fd_sc_hd__o211ai_1 A1 A2 B1 C1 VGND VNB VPB VPWR Y
.ends

* Black-box entry subcircuit for sky130_fd_sc_hd__nor4_1 abstract view
.subckt sky130_fd_sc_hd__nor4_1 A B C D VGND VNB VPB VPWR Y
.ends

* Black-box entry subcircuit for sky130_fd_sc_hd__o32a_1 abstract view
.subckt sky130_fd_sc_hd__o32a_1 A1 A2 A3 B1 B2 VGND VNB VPB VPWR X
.ends

* Black-box entry subcircuit for sky130_fd_sc_hd__a31o_2 abstract view
.subckt sky130_fd_sc_hd__a31o_2 A1 A2 A3 B1 VGND VNB VPB VPWR X
.ends

* Black-box entry subcircuit for sky130_fd_sc_hd__o41a_1 abstract view
.subckt sky130_fd_sc_hd__o41a_1 A1 A2 A3 A4 B1 VGND VNB VPB VPWR X
.ends

* Black-box entry subcircuit for sky130_fd_sc_hd__clkdlybuf4s50_1 abstract view
.subckt sky130_fd_sc_hd__clkdlybuf4s50_1 A VGND VNB VPB VPWR X
.ends

* Black-box entry subcircuit for sky130_fd_sc_hd__nand2b_2 abstract view
.subckt sky130_fd_sc_hd__nand2b_2 A_N B VGND VNB VPB VPWR Y
.ends

* Black-box entry subcircuit for sky130_fd_sc_hd__or4_2 abstract view
.subckt sky130_fd_sc_hd__or4_2 A B C D VGND VNB VPB VPWR X
.ends

* Black-box entry subcircuit for sky130_fd_sc_hd__a21o_4 abstract view
.subckt sky130_fd_sc_hd__a21o_4 A1 A2 B1 VGND VNB VPB VPWR X
.ends

* Black-box entry subcircuit for sky130_fd_sc_hd__o22ai_4 abstract view
.subckt sky130_fd_sc_hd__o22ai_4 A1 A2 B1 B2 VGND VNB VPB VPWR Y
.ends

* Black-box entry subcircuit for sky130_fd_sc_hd__and2b_2 abstract view
.subckt sky130_fd_sc_hd__and2b_2 A_N B VGND VNB VPB VPWR X
.ends

* Black-box entry subcircuit for sky130_fd_sc_hd__or3_4 abstract view
.subckt sky130_fd_sc_hd__or3_4 A B C VGND VNB VPB VPWR X
.ends

* Black-box entry subcircuit for sky130_fd_sc_hd__a221oi_2 abstract view
.subckt sky130_fd_sc_hd__a221oi_2 A1 A2 B1 B2 C1 VGND VNB VPB VPWR Y
.ends

* Black-box entry subcircuit for sky130_fd_sc_hd__nor4_4 abstract view
.subckt sky130_fd_sc_hd__nor4_4 A B C D VGND VNB VPB VPWR Y
.ends

.subckt MULTI_32bit A[0] A[10] A[11] A[12] A[13] A[14] A[15] A[16] A[17] A[18] A[19]
+ A[1] A[20] A[21] A[22] A[23] A[24] A[25] A[26] A[27] A[28] A[29] A[2] A[30] A[31]
+ A[3] A[4] A[5] A[6] A[7] A[8] A[9] B[0] B[10] B[11] B[12] B[13] B[14] B[15] B[16]
+ B[17] B[18] B[19] B[1] B[20] B[21] B[22] B[23] B[24] B[25] B[26] B[27] B[28] B[29]
+ B[2] B[30] B[31] B[3] B[4] B[5] B[6] B[7] B[8] B[9] F[0] F[10] F[11] F[12] F[13]
+ F[14] F[15] F[16] F[17] F[18] F[19] F[1] F[20] F[21] F[22] F[23] F[24] F[25] F[26]
+ F[27] F[28] F[29] F[2] F[30] F[31] F[3] F[4] F[5] F[6] F[7] F[8] F[9] VGND VPWR
+ clk rst
XFILLER_39_211 VGND VGND VPWR VPWR sky130_fd_sc_hd__decap_4
XFILLER_67_586 VGND VGND VPWR VPWR sky130_fd_sc_hd__decap_6
X_7963_ _7963_/A _7963_/B VGND VGND VPWR VPWR _7974_/A sky130_fd_sc_hd__xnor2_1
X_6914_ _7029_/B VGND VGND VPWR VPWR _6914_/Y sky130_fd_sc_hd__inv_2
X_7894_ _7894_/A _7894_/B VGND VGND VPWR VPWR _7897_/A sky130_fd_sc_hd__xnor2_2
XFILLER_82_589 VGND VGND VPWR VPWR sky130_fd_sc_hd__fill_1
XFILLER_35_472 VGND VGND VPWR VPWR sky130_fd_sc_hd__decap_12
XFILLER_50_442 VGND VGND VPWR VPWR sky130_fd_sc_hd__decap_8
XFILLER_50_431 VGND VGND VPWR VPWR sky130_fd_sc_hd__decap_4
X_6845_ _6845_/A _6845_/B _6845_/C VGND VGND VPWR VPWR _6845_/X sky130_fd_sc_hd__and3_1
X_6776_ _9179_/Q VGND VGND VPWR VPWR _7119_/C sky130_fd_sc_hd__dlymetal6s2s_1
X_8515_ _8337_/A _8351_/B _8516_/B _8587_/A VGND VGND VPWR VPWR _8518_/A sky130_fd_sc_hd__a22oi_1
XFILLER_10_328 VGND VGND VPWR VPWR sky130_fd_sc_hd__decap_4
XFILLER_22_177 VGND VGND VPWR VPWR sky130_fd_sc_hd__decap_8
X_5727_ _4780_/A _5726_/X _5727_/S VGND VGND VPWR VPWR _5727_/X sky130_fd_sc_hd__mux2_1
X_8446_ _8447_/A _8447_/B _8447_/C VGND VGND VPWR VPWR _8556_/A sky130_fd_sc_hd__o21a_1
X_5658_ _4846_/A _5119_/A _5656_/Y _5657_/X _5140_/A VGND VGND VPWR VPWR _5658_/X
+ sky130_fd_sc_hd__a221o_1
X_8377_ _8377_/A _8377_/B VGND VGND VPWR VPWR _8397_/A sky130_fd_sc_hd__xor2_1
X_5589_ _5249_/A _5389_/A _5258_/A VGND VGND VPWR VPWR _5589_/Y sky130_fd_sc_hd__a21oi_1
X_4609_ _9104_/Q VGND VGND VPWR VPWR _5735_/S sky130_fd_sc_hd__inv_2
XFILLER_89_122 VGND VGND VPWR VPWR sky130_fd_sc_hd__decap_4
XFILLER_89_111 VGND VGND VPWR VPWR sky130_fd_sc_hd__fill_1
X_7328_ _7328_/A _7328_/B VGND VGND VPWR VPWR _7329_/B sky130_fd_sc_hd__nor2_1
XFILLER_7_7 VGND VGND VPWR VPWR sky130_fd_sc_hd__decap_12
X_7259_ _7259_/A _7259_/B _9180_/Q _7259_/D VGND VGND VPWR VPWR _7260_/B sky130_fd_sc_hd__and4_1
XFILLER_104_477 VGND VGND VPWR VPWR sky130_fd_sc_hd__decap_8
XFILLER_77_328 VGND VGND VPWR VPWR sky130_fd_sc_hd__decap_8
XFILLER_58_531 VGND VGND VPWR VPWR sky130_fd_sc_hd__fill_1
XFILLER_18_417 VGND VGND VPWR VPWR sky130_fd_sc_hd__decap_3
XFILLER_73_556 VGND VGND VPWR VPWR sky130_fd_sc_hd__decap_4
XFILLER_60_206 VGND VGND VPWR VPWR sky130_fd_sc_hd__decap_4
XFILLER_26_52 VGND VGND VPWR VPWR sky130_fd_sc_hd__fill_1
XFILLER_26_483 VGND VGND VPWR VPWR sky130_fd_sc_hd__decap_4
XFILLER_26_96 VGND VGND VPWR VPWR sky130_fd_sc_hd__fill_1
XFILLER_41_431 VGND VGND VPWR VPWR sky130_fd_sc_hd__decap_4
XFILLER_13_144 VGND VGND VPWR VPWR sky130_fd_sc_hd__decap_4
XFILLER_41_464 VGND VGND VPWR VPWR sky130_fd_sc_hd__decap_4
XFILLER_5_398 VGND VGND VPWR VPWR sky130_fd_sc_hd__decap_12
XFILLER_68_328 VGND VGND VPWR VPWR sky130_fd_sc_hd__decap_4
XFILLER_95_136 VGND VGND VPWR VPWR sky130_fd_sc_hd__decap_4
XFILLER_49_520 VGND VGND VPWR VPWR sky130_fd_sc_hd__fill_2
XFILLER_3_67 VGND VGND VPWR VPWR sky130_fd_sc_hd__decap_4
XFILLER_95_169 VGND VGND VPWR VPWR sky130_fd_sc_hd__fill_1
XFILLER_76_372 VGND VGND VPWR VPWR sky130_fd_sc_hd__decap_4
XFILLER_91_386 VGND VGND VPWR VPWR sky130_fd_sc_hd__decap_6
XFILLER_51_228 VGND VGND VPWR VPWR sky130_fd_sc_hd__decap_4
X_4960_ _4960_/A _4960_/B _4963_/B VGND VGND VPWR VPWR _4960_/X sky130_fd_sc_hd__and3_1
XFILLER_83_91 VGND VGND VPWR VPWR sky130_fd_sc_hd__decap_4
X_4891_ _4891_/A VGND VGND VPWR VPWR _4891_/X sky130_fd_sc_hd__clkbuf_2
X_6630_ _8519_/A VGND VGND VPWR VPWR _8584_/A sky130_fd_sc_hd__buf_4
X_6561_ _6558_/X _6649_/B _6478_/B _6480_/X VGND VGND VPWR VPWR _6562_/B sky130_fd_sc_hd__o211a_1
X_8300_ _8393_/B _8300_/B VGND VGND VPWR VPWR _8304_/A sky130_fd_sc_hd__or2_1
X_5512_ _4849_/A _5179_/A _4846_/A VGND VGND VPWR VPWR _5512_/Y sky130_fd_sc_hd__a21oi_1
X_6492_ _7148_/D VGND VGND VPWR VPWR _7604_/D sky130_fd_sc_hd__clkbuf_2
X_8231_ _8231_/A _8231_/B VGND VGND VPWR VPWR _8232_/B sky130_fd_sc_hd__nor2_1
XFILLER_8_192 VGND VGND VPWR VPWR sky130_fd_sc_hd__decap_4
X_5443_ _5382_/X _5278_/X _5414_/X VGND VGND VPWR VPWR _5443_/Y sky130_fd_sc_hd__a21oi_1
X_8162_ _8162_/A _8162_/B VGND VGND VPWR VPWR _8164_/B sky130_fd_sc_hd__xnor2_1
X_5374_ _5142_/X _5248_/Y _5154_/X VGND VGND VPWR VPWR _5374_/Y sky130_fd_sc_hd__a21oi_1
X_7113_ _9182_/Q VGND VGND VPWR VPWR _7640_/A sky130_fd_sc_hd__clkbuf_2
XFILLER_99_497 VGND VGND VPWR VPWR sky130_fd_sc_hd__decap_6
X_8093_ _8093_/A _8150_/D VGND VGND VPWR VPWR _8094_/B sky130_fd_sc_hd__nand2_1
XFILLER_87_615 VGND VGND VPWR VPWR sky130_fd_sc_hd__fill_1
X_7044_ _7044_/A _7044_/B VGND VGND VPWR VPWR _7143_/B sky130_fd_sc_hd__xnor2_1
XFILLER_86_169 VGND VGND VPWR VPWR sky130_fd_sc_hd__decap_4
XFILLER_74_309 VGND VGND VPWR VPWR sky130_fd_sc_hd__decap_8
XFILLER_67_350 VGND VGND VPWR VPWR sky130_fd_sc_hd__fill_2
XFILLER_103_35 VGND VGND VPWR VPWR sky130_fd_sc_hd__decap_12
X_8995_ _8993_/X _9018_/A _8948_/A _8952_/B VGND VGND VPWR VPWR _8995_/Y sky130_fd_sc_hd__o211ai_2
XFILLER_55_556 VGND VGND VPWR VPWR sky130_fd_sc_hd__decap_4
XFILLER_15_409 VGND VGND VPWR VPWR sky130_fd_sc_hd__decap_12
XFILLER_27_258 VGND VGND VPWR VPWR sky130_fd_sc_hd__decap_6
XTAP_1129 VGND VPWR sky130_fd_sc_hd__tapvpwrvgnd_1
XTAP_1118 VGND VPWR sky130_fd_sc_hd__tapvpwrvgnd_1
XTAP_1107 VGND VPWR sky130_fd_sc_hd__tapvpwrvgnd_1
X_7946_ _7946_/A _7946_/B _7945_/X VGND VGND VPWR VPWR _7948_/A sky130_fd_sc_hd__or3b_1
XFILLER_55_578 VGND VGND VPWR VPWR sky130_fd_sc_hd__fill_1
X_7877_ _7877_/A _7976_/A VGND VGND VPWR VPWR _7957_/A sky130_fd_sc_hd__nand2_1
XFILLER_11_615 VGND VGND VPWR VPWR sky130_fd_sc_hd__fill_1
X_6828_ _6828_/A _7824_/B VGND VGND VPWR VPWR _6829_/B sky130_fd_sc_hd__nand2_2
X_6759_ _7148_/A _7040_/A _6759_/C _6927_/D VGND VGND VPWR VPWR _6762_/A sky130_fd_sc_hd__and4_1
XFILLER_10_158 VGND VGND VPWR VPWR sky130_fd_sc_hd__decap_4
XFILLER_10_136 VGND VGND VPWR VPWR sky130_fd_sc_hd__decap_4
XFILLER_6_107 VGND VGND VPWR VPWR sky130_fd_sc_hd__decap_4
X_8429_ _8510_/A _8429_/B VGND VGND VPWR VPWR _8430_/B sky130_fd_sc_hd__and2b_1
XFILLER_77_147 VGND VGND VPWR VPWR sky130_fd_sc_hd__decap_6
XFILLER_100_491 VGND VGND VPWR VPWR sky130_fd_sc_hd__fill_2
XFILLER_46_567 VGND VGND VPWR VPWR sky130_fd_sc_hd__decap_8
XFILLER_46_556 VGND VGND VPWR VPWR sky130_fd_sc_hd__decap_4
XFILLER_61_559 VGND VGND VPWR VPWR sky130_fd_sc_hd__fill_1
XFILLER_26_291 VGND VGND VPWR VPWR sky130_fd_sc_hd__fill_2
XFILLER_14_442 VGND VGND VPWR VPWR sky130_fd_sc_hd__decap_6
XFILLER_14_486 VGND VGND VPWR VPWR sky130_fd_sc_hd__fill_1
XFILLER_5_140 VGND VGND VPWR VPWR sky130_fd_sc_hd__fill_2
XFILLER_52_6 VGND VGND VPWR VPWR sky130_fd_sc_hd__decap_8
XFILLER_5_173 VGND VGND VPWR VPWR sky130_fd_sc_hd__decap_4
XFILLER_5_195 VGND VGND VPWR VPWR sky130_fd_sc_hd__decap_4
XFILLER_69_615 VGND VGND VPWR VPWR sky130_fd_sc_hd__fill_1
XFILLER_68_136 VGND VGND VPWR VPWR sky130_fd_sc_hd__decap_4
X_5090_ _4940_/C _4998_/A _5040_/A _5740_/S VGND VGND VPWR VPWR _5090_/X sky130_fd_sc_hd__a31o_1
XFILLER_56_309 VGND VGND VPWR VPWR sky130_fd_sc_hd__decap_6
XFILLER_49_372 VGND VGND VPWR VPWR sky130_fd_sc_hd__fill_1
XFILLER_64_320 VGND VGND VPWR VPWR sky130_fd_sc_hd__fill_1
XFILLER_91_161 VGND VGND VPWR VPWR sky130_fd_sc_hd__decap_6
XFILLER_91_150 VGND VGND VPWR VPWR sky130_fd_sc_hd__decap_4
X_8780_ _8780_/A _8780_/B _8887_/A VGND VGND VPWR VPWR _8836_/A sky130_fd_sc_hd__and3_1
X_7800_ _7699_/A _7699_/B _7703_/B VGND VGND VPWR VPWR _7800_/Y sky130_fd_sc_hd__a21oi_1
X_5992_ _5979_/A _5979_/B _5979_/C VGND VGND VPWR VPWR _6037_/C sky130_fd_sc_hd__a21o_1
XFILLER_91_194 VGND VGND VPWR VPWR sky130_fd_sc_hd__decap_4
X_7731_ _7731_/A _7731_/B VGND VGND VPWR VPWR _7739_/A sky130_fd_sc_hd__xnor2_2
X_4943_ _4943_/A _4943_/B VGND VGND VPWR VPWR _5093_/A sky130_fd_sc_hd__and2_2
X_7662_ _7661_/A _7661_/B _7660_/Y VGND VGND VPWR VPWR _7784_/A sky130_fd_sc_hd__o21ba_2
XFILLER_60_592 VGND VGND VPWR VPWR sky130_fd_sc_hd__decap_12
X_6613_ _6614_/B _6691_/A _6614_/A VGND VGND VPWR VPWR _6615_/A sky130_fd_sc_hd__a21o_1
X_4874_ _4872_/X _4873_/Y _4874_/S VGND VGND VPWR VPWR _4874_/X sky130_fd_sc_hd__mux2_1
XFILLER_32_283 VGND VGND VPWR VPWR sky130_fd_sc_hd__decap_4
X_7593_ _7594_/A _7594_/B VGND VGND VPWR VPWR _7593_/X sky130_fd_sc_hd__and2_1
Xclkbuf_4_12_0_clk clkbuf_3_6_0_clk/X VGND VGND VPWR VPWR _9212_/CLK sky130_fd_sc_hd__clkbuf_2
X_6544_ _6543_/B _6616_/A _6543_/A VGND VGND VPWR VPWR _6545_/B sky130_fd_sc_hd__a21o_1
X_6475_ _6560_/B _6475_/B VGND VGND VPWR VPWR _6476_/C sky130_fd_sc_hd__xnor2_1
X_8214_ _8898_/B VGND VGND VPWR VPWR _8933_/B sky130_fd_sc_hd__buf_2
X_5426_ _5287_/X _5187_/X _5422_/X _5425_/Y VGND VGND VPWR VPWR _5426_/X sky130_fd_sc_hd__a22o_1
X_9194_ _9219_/CLK _9194_/D VGND VGND VPWR VPWR _9194_/Q sky130_fd_sc_hd__dfxtp_4
X_8145_ _8254_/A _8145_/B VGND VGND VPWR VPWR _8168_/A sky130_fd_sc_hd__and2_1
X_5357_ _5245_/X _5356_/X _5427_/S VGND VGND VPWR VPWR _5357_/X sky130_fd_sc_hd__mux2_1
XFILLER_101_222 VGND VGND VPWR VPWR sky130_fd_sc_hd__fill_2
X_8076_ _8076_/A _8076_/B VGND VGND VPWR VPWR _8078_/C sky130_fd_sc_hd__xnor2_1
X_5288_ _5362_/A _5559_/B VGND VGND VPWR VPWR _5288_/X sky130_fd_sc_hd__or2_1
XFILLER_87_467 VGND VGND VPWR VPWR sky130_fd_sc_hd__decap_4
XFILLER_87_456 VGND VGND VPWR VPWR sky130_fd_sc_hd__decap_4
X_7027_ _7027_/A _7027_/B _7141_/A VGND VGND VPWR VPWR _7141_/B sky130_fd_sc_hd__nand3_2
XFILLER_59_169 VGND VGND VPWR VPWR sky130_fd_sc_hd__decap_3
XFILLER_101_288 VGND VGND VPWR VPWR sky130_fd_sc_hd__decap_4
XFILLER_74_139 VGND VGND VPWR VPWR sky130_fd_sc_hd__fill_1
XFILLER_74_128 VGND VGND VPWR VPWR sky130_fd_sc_hd__fill_1
X_8978_ _8978_/A _8978_/B _9002_/A VGND VGND VPWR VPWR _8979_/A sky130_fd_sc_hd__and3_1
XFILLER_28_589 VGND VGND VPWR VPWR sky130_fd_sc_hd__decap_6
X_7929_ _7929_/A _7929_/B VGND VGND VPWR VPWR _7932_/A sky130_fd_sc_hd__xor2_1
XFILLER_70_345 VGND VGND VPWR VPWR sky130_fd_sc_hd__decap_12